###
### Created by X-TOOL on Mon Sep 10 21:13:05 2018
###

@<TRIPOS>MOLECULE
3o9i0001
   81    85     1     0     0
SMALL
GAST_HUCK


@<TRIPOS>ATOM
      1 C1           15.352000   36.530998   18.517000 C.2      1 A61        0.0000
      2 N1           14.908000   35.264999   18.599001 N.2      1 A61        0.0000
      3 S1           16.580000   36.808998   17.316999 S.3      1 A61        0.0000
      4 C2           15.521000   34.437000   17.700001 C.ar     1 A61        0.0000
      5 C3           16.461000   35.146000   16.952000 C.ar     1 A61        0.0000
      6 C4           17.193001   34.442001   15.975000 C.ar     1 A61        0.0000
      7 C5           17.014999   33.053001   15.737000 C.ar     1 A61        0.0000
      8 C6           16.042999   32.386002   16.488001 C.ar     1 A61        0.0000
      9 C7           15.318000   33.085999   17.447001 C.ar     1 A61        0.0000
     10 S8           17.926001   32.153999   14.701000 S.o2     1 A61        0.0000
     11 O9           18.485001   33.021999   13.725000 O.2      1 A61        0.0000
     12 O10          17.183001   31.063999   14.198000 O.2      1 A61        0.0000
     13 N11          19.170000   31.554001   15.569000 N.am     1 A61        0.0000
     14 C12          19.927000   32.564999   16.344999 C.3      1 A61        0.0000
     15 C13          21.444000   32.375000   16.281000 C.3      1 A61        0.0000
     16 C14          22.033001   32.462002   14.869000 C.3      1 A61        0.0000
     17 C15          22.094000   33.374001   17.259001 C.3      1 A61        0.0000
     18 C16          18.922001   30.275000   16.257999 C.3      1 A61        0.0000
     19 C17          19.865000   29.200001   15.701000 C.3      1 A61        0.0000
     20 C18          21.979000   34.833000   16.860001 C.3      1 A61        0.0000
     21 O18          19.830999   28.066999   16.591000 O.3      1 A61        0.0000
     22 C19          19.507999   28.747000   14.277000 C.3      1 A61        0.0000
     23 C20          23.481001   32.014999   14.806000 C.3      1 A61        0.0000
     24 N20          20.594999   27.927999   13.777000 N.am     1 A61        0.0000
     25 C21          21.473000   28.299000   12.869000 C.2      1 A61        0.0000
     26 O22          21.605000   29.365000   12.313000 O.2      1 A61        0.0000
     27 O23          22.382000   27.242001   12.584000 O.3      1 A61        0.0000
     28 C24          23.249001   27.410000   11.469000 C.3      1 A61        0.0000
     29 C25          24.572001   26.819000   11.932000 C.3      1 A61        0.0000
     30 O26          24.384001   25.416000   11.823000 O.3      1 A61        0.0000
     31 C27          23.493000   25.125999   10.759000 C.3      1 A61        0.0000
     32 O28          22.500000   24.214001   11.187000 O.3      1 A61        0.0000
     33 C29          21.209999   24.823000   11.228000 C.3      1 A61        0.0000
     34 C30          21.330000   26.086000   10.388000 C.3      1 A61        0.0000
     35 C31          22.811001   26.431999   10.400000 C.3      1 A61        0.0000
     36 C32          18.208000   27.941000   14.170000 C.3      1 A61        0.0000
     37 C33          18.039000   26.195999   12.364000 C.ar     1 A61        0.0000
     38 C34          17.836000   25.816000   11.038000 C.ar     1 A61        0.0000
     39 C35          17.493999   26.775000   10.095000 C.ar     1 A61        0.0000
     40 C36          17.378000   28.110001   10.460000 C.ar     1 A61        0.0000
     41 C37          17.597000   28.497999   11.773000 C.ar     1 A61        0.0000
     42 C38          17.951000   27.541000   12.728000 C.ar     1 A61        0.0000
     43 H1           14.970200   37.325802   19.156099 H        1 A61        0.0000
     44 H2           17.921301   34.982300   15.381100 H        1 A61        0.0000
     45 H3           15.855500   31.330999   16.324400 H        1 A61        0.0000
     46 H4           14.565000   32.556499   18.019501 H        1 A61        0.0000
     47 H5           19.612700   32.502800   17.397301 H        1 A61        0.0000
     48 H6           19.684200   33.561699   15.948000 H        1 A61        0.0000
     49 H7           21.662201   31.360800   16.646799 H        1 A61        0.0000
     50 H8           21.972500   33.505699   14.526900 H        1 A61        0.0000
     51 H9           21.438499   31.822001   14.200500 H        1 A61        0.0000
     52 H10          23.162701   33.125999   17.339199 H        1 A61        0.0000
     53 H11          21.614201   33.250599   18.241100 H        1 A61        0.0000
     54 H12          17.878700   29.967199   16.094601 H        1 A61        0.0000
     55 H13          19.103399   30.398399   17.335899 H        1 A61        0.0000
     56 H14          20.884800   29.611900   15.681400 H        1 A61        0.0000
     57 H15          22.470900   35.460300   17.618000 H        1 A61        0.0000
     58 H16          20.917101   35.110699   16.787300 H        1 A61        0.0000
     59 H17          22.465599   34.986099   15.885400 H        1 A61        0.0000
     60 H18          18.943899   27.730600   16.639799 H        1 A61        0.0000
     61 H19          19.406799   29.643600   13.647800 H        1 A61        0.0000
     62 H20          23.846201   32.099701   13.771900 H        1 A61        0.0000
     63 H21          23.556499   30.968700   15.136900 H        1 A61        0.0000
     64 H22          24.090500   32.652401   15.463400 H        1 A61        0.0000
     65 H23          20.685101   27.005699   14.152700 H        1 A61        0.0000
     66 H24          23.313000   28.450600   11.118200 H        1 A61        0.0000
     67 H25          24.783800   27.104401   12.973000 H        1 A61        0.0000
     68 H26          25.396400   27.153500   11.285100 H        1 A61        0.0000
     69 H27          24.040100   24.716700    9.897000 H        1 A61        0.0000
     70 H28          20.936300   25.074499   12.263300 H        1 A61        0.0000
     71 H29          20.452700   24.148500   10.802000 H        1 A61        0.0000
     72 H30          20.739500   26.901600   10.830800 H        1 A61        0.0000
     73 H31          20.985399   25.900101    9.360000 H        1 A61        0.0000
     74 H32          23.117399   26.801500    9.410300 H        1 A61        0.0000
     75 H33          17.369801   28.555300   14.530700 H        1 A61        0.0000
     76 H34          18.291201   27.035000   14.788200 H        1 A61        0.0000
     77 H35          18.265499   25.446199   13.113300 H        1 A61        0.0000
     78 H36          17.944599   24.777901   10.745400 H        1 A61        0.0000
     79 H37          17.316299   26.480301    9.067100 H        1 A61        0.0000
     80 H38          17.115000   28.852100    9.714900 H        1 A61        0.0000
     81 H39          17.494101   29.538900   12.057500 H        1 A61        0.0000
@<TRIPOS>BOND
     1    2    1 2
     2    3    1 1
     3    4    2 1
     4    5    3 1
     5    5    4 ar
     6    9    4 ar
     7    6    5 ar
     8    7    6 ar
     9    7    8 ar
    10   10    7 1
    11    8    9 ar
    12   10   11 2
    13   10   12 2
    14   13   10 am
    15   13   14 1
    16   18   13 1
    17   14   15 1
    18   15   16 1
    19   15   17 1
    20   16   23 1
    21   17   20 1
    22   19   18 1
    23   19   21 1
    24   22   19 1
    25   22   24 1
    26   36   22 1
    27   24   25 am
    28   25   26 2
    29   25   27 1
    30   27   28 1
    31   28   29 1
    32   28   35 1
    33   29   30 1
    34   31   30 1
    35   31   32 1
    36   35   31 1
    37   33   32 1
    38   34   33 1
    39   35   34 1
    40   42   36 1
    41   37   38 ar
    42   37   42 ar
    43   38   39 ar
    44   39   40 ar
    45   40   41 ar
    46   41   42 ar
    47    1   43 1
    48    6   44 1
    49    8   45 1
    50    9   46 1
    51   14   47 1
    52   14   48 1
    53   15   49 1
    54   16   50 1
    55   16   51 1
    56   17   52 1
    57   17   53 1
    58   18   54 1
    59   18   55 1
    60   19   56 1
    61   20   57 1
    62   20   58 1
    63   20   59 1
    64   21   60 1
    65   22   61 1
    66   23   62 1
    67   23   63 1
    68   23   64 1
    69   24   65 1
    70   28   66 1
    71   29   67 1
    72   29   68 1
    73   31   69 1
    74   33   70 1
    75   33   71 1
    76   34   72 1
    77   34   73 1
    78   35   74 1
    79   36   75 1
    80   36   76 1
    81   37   77 1
    82   38   78 1
    83   39   79 1
    84   40   80 1
    85   41   81 1
@<TRIPOS>SUBSTRUCTURE
     1 A61         1

